[TITLE]


[JUNCTIONS]
;ID              	Elev        	Demand      	Pattern         
 J-1             	1778        	0           	                	;
 J-2             	1776        	0           	                	;
 J-3             	1776        	0           	                	;
 J-4             	1779        	0           	                	;
 J-5             	1758        	0           	                	;
 J-6             	1753        	0           	                	;
 J-7             	1768        	0           	                	;
 J-8             	1774        	0           	                	;
 J-9             	1771        	0           	                	;
 J-10            	1711        	0           	                	;
 J-11            	1703        	0.7         	                	;
 J-12            	1777        	0.07        	                	;
 J-13            	1737        	0.87        	                	;
 J-14            	1775        	0.36        	                	;
 J-15            	1774        	4.38        	                	;
 J-16            	1758        	0.19        	                	;
 J-17            	1753        	0.26        	                	;
 J-18            	1700        	0.81        	                	;
 J-19            	1718        	0.7         	                	;
 J-20            	1771        	0.26        	                	;
 J-21            	1711        	0.017       	                	;
 J-22            	1779        	0           	                	;
 J-24            	1688        	0           	                	;
 J-25            	1688        	0           	                	;
 J-26            	1717        	0           	                	;
 J-27            	1688        	0           	                	;
 J-28            	1688        	0           	                	;
 J-29            	1688        	0           	                	;
 J-30            	1688        	0           	                	;
 J-31            	1709        	0           	                	;
 J-32            	1700        	0           	                	;
 J-33            	1699        	0           	                	;
 J-34            	1708        	0           	                	;
 J-35            	1708        	0.48        	                	;
 J-36            	1708        	0.58        	                	;
 J-37            	1688        	0.42        	                	;
 J-38            	1688        	0.04        	                	;
 J-39            	1717        	0.15        	                	;
 J-40            	1688        	0.08        	                	;
 J-41            	1688        	0.08        	                	;
 J-42            	1688        	0.02        	                	;
 J-43            	1703        	0.39        	                	;
 J-44            	1709        	0.14        	                	;
 J-45            	1700        	0.3         	                	;
 J-46            	1699        	0.3         	                	;

[RESERVOIRS]
;ID              	Head        	Pattern         
 R-1             	1899        	                	;

[TANKS]
;ID              	Elevation   	InitLevel   	MinLevel    	MaxLevel    	Diameter    	MinVol      	VolCurve        	Overflow
 ST-1            	1808        	2           	1           	5           	10          	0           	                	;

[PIPES]
;ID              	Node1           	Node2           	Length      	Diameter    	Roughness   	MinorLoss   	Status
 P-1             	ST-1            	J-1             	570         	152.4       	0.035       	0           	Open  	;
 P-2             	J-1             	J-2             	350         	152.4       	0.035       	0           	Open  	;
 P-3             	J-2             	J-3             	1           	152.4       	0.035       	0           	Open  	;
 P-4             	J-3             	J-4             	600         	152.4       	0.035       	0           	Open  	;
 P-5             	J-4             	J-5             	650         	101.6       	0.035       	0           	Open  	;
 P-6             	J-5             	J-6             	400         	101.6       	0.035       	0           	Open  	;
 P-7             	J-6             	J-7             	150         	101.6       	0.035       	0           	Open  	;
 P-8             	J-7             	J-8             	1000        	101.6       	0.035       	0           	Open  	;
 P-9             	J-8             	J-9             	30          	101.6       	0.035       	0           	Open  	;
 P-10            	J-9             	J-10            	2000        	76.2        	0.035       	0           	Open  	;
 P-11            	J-10            	J-11            	700         	76.2        	0.035       	0           	Open  	;
 P-12            	J-1             	J-12            	0.5         	76.2        	0.035       	0           	Open  	;
 P-13            	J-2             	J-13            	2000        	76.2        	0.035       	0           	Open  	;
 P-14            	J-3             	J-14            	50          	38.1        	0.035       	0           	Open  	;
 P-15            	J-4             	J-15            	600         	76.2        	0.035       	0           	Open  	;
 P-16            	J-5             	J-16            	0.5         	50.8        	0.035       	0           	Open  	;
 P-17            	J-6             	J-17            	0.5         	50.8        	0.035       	0           	Open  	;
 P-18            	J-7             	J-18            	1000        	50.8        	0.035       	0           	Open  	;
 P-19            	J-8             	J-19            	1500        	50.8        	0.035       	0           	Open  	;
 P-20            	J-9             	J-20            	0.5         	50.8        	0.035       	0           	Open  	;
 P-21            	J-10            	J-21            	0.5         	19.05       	0.035       	0           	Open  	;
 P-22            	J-22            	J-24            	900         	50.8        	0.035       	0           	Open  	;
 P-23            	J-24            	J-25            	1800        	50.8        	0.035       	0           	Open  	;
 P-24            	J-25            	J-26            	200         	50.8        	0.035       	0           	Open  	;
 P-25            	J-26            	J-27            	100         	50.8        	0.035       	0           	Open  	;
 P-26            	J-27            	J-28            	200         	50.8        	0.035       	0           	Open  	;
 P-27            	J-28            	J-29            	400         	50.8        	0.035       	0           	Open  	;
 P-28            	J-29            	J-30            	100         	50.8        	0.035       	0           	Open  	;
 P-29            	J-30            	J-31            	150         	50.8        	0.035       	0           	Open  	;
 P-30            	J-31            	J-32            	50          	50.8        	0.035       	0           	Open  	;
 P-31            	J-32            	J-33            	50          	50.8        	0.035       	0           	Open  	;
 P-32            	J-33            	J-34            	50          	50.8        	0.035       	0           	Open  	;
 P-33            	J-34            	J-35            	0.5         	50.8        	0.035       	0           	Open  	;
 P-34            	J-34            	J-36            	0.5         	38.1        	0.035       	0           	Open  	;
 P-35            	J-24            	J-37            	300         	50.8        	0.035       	0           	Open  	;
 P-36            	J-25            	J-38            	0.5         	19.05       	0.035       	0           	Open  	;
 P-37            	J-26            	J-39            	0.5         	19.05       	0.035       	0           	Open  	;
 P-38            	J-27            	J-40            	0.5         	19.05       	0.035       	0           	Open  	;
 P-39            	J-28            	J-41            	0.5         	19.05       	0.035       	0           	Open  	;
 P-40            	J-29            	J-42            	0.5         	25.4        	0.035       	0           	Open  	;
 P-41            	J-30            	J-43            	0.5         	25.4        	0.035       	0           	Open  	;
 P-42            	J-31            	J-44            	0.5         	50.8        	0.035       	0           	Open  	;
 P-43            	J-32            	J-45            	0.5         	50.8        	0.035       	0           	Open  	;
 P-44            	J-33            	J-46            	0.5         	50.8        	0.035       	0           	Open  	;
 P-45            	R-1             	ST-1            	3000        	76.2        	0.035       	0           	Open  	;

[PUMPS]
;ID              	Node1           	Node2           	Parameters

[VALVES]
;ID              	Node1           	Node2           	Diameter    	Type	Setting     	MinorLoss   
 1               	J-15            	J-22            	76.2        	FCV 	1           	0           	;

[TAGS]

[DEMANDS]
;Junction        	Demand      	Pattern         	Category

[STATUS]
;ID              	Status/Setting
 1               	Open

[PATTERNS]
;ID              	Multipliers

[CURVES]
;ID              	X-Value     	Y-Value

[CONTROLS]

[RULES]

[ENERGY]
 Global Efficiency  	75
 Global Price       	0
 Demand Charge      	0

[EMITTERS]
;Junction        	Coefficient

[QUALITY]
;Node            	InitQual

[SOURCES]
;Node            	Type        	Quality     	Pattern

[REACTIONS]
;Type     	Pipe/Tank       	Coefficient


[REACTIONS]
 Order Bulk            	1
 Order Tank            	1
 Order Wall            	1
 Global Bulk           	0
 Global Wall           	0
 Limiting Potential    	0
 Roughness Correlation 	0

[MIXING]
;Tank            	Model

[TIMES]
 Duration           	24
 Hydraulic Timestep 	1:00
 Quality Timestep   	0:05
 Pattern Timestep   	1:00
 Pattern Start      	0:00
 Report Timestep    	1:00
 Report Start       	0:00
 Start ClockTime    	12 am
 Statistic          	None

[REPORT]
 Status             	No
 Summary            	No
 Page               	0

[OPTIONS]
 Units              	LPS
 Headloss           	D-W
 Specific Gravity   	1
 Viscosity          	1
 Trials             	40
 Accuracy           	0.001
 CHECKFREQ          	2
 MAXCHECK           	10
 DAMPLIMIT          	0
 Unbalanced         	Continue 10
 Pattern            	1
 Demand Multiplier  	1.0
 Demand Model       	PDA
 Minimum Pressure   	0
 Required Pressure  	0.1
 Pressure Exponent  	0.5
 Emitter Exponent   	0.5
 Quality            	None mg/L
 Diffusivity        	1
 Tolerance          	0.01

[COORDINATES]
;Node            	X-Coord           	Y-Coord
J-1             	-2350.937         	8262.351          
J-2             	-1533.220         	7989.779          
J-3             	-1090.290         	7870.528          
J-4             	391.823           	7069.847          
J-5             	2708.688          	6456.559          
J-6             	4105.622          	5809.199          
J-7             	5195.911          	5621.806          
J-8             	7853.492          	5076.661          
J-9             	8756.388          	4923.339          
J-10            	12129.472         	3798.978          
J-11            	13918.228         	2810.903          
J-12            	-1550.256         	8654.174          
J-13            	1669.506          	8909.710          
J-14            	136.286           	8143.101          
J-15            	1345.826          	5161.840          
J-16            	4173.765          	7172.061          
J-17            	5366.269          	6354.344          
J-18            	7785.349          	6865.417          
J-19            	9795.571          	6235.094          
J-20            	9982.964          	5638.842          
J-21            	12981.261         	4020.443          
J-22            	2333.901          	4940.375          
J-24            	3628.620          	4616.695          
J-25            	4582.624          	4327.087          
J-26            	5587.734          	4037.479          
J-27            	6507.666          	3713.799          
J-28            	7785.349          	3356.048          
J-29            	8858.603          	3015.332          
J-30            	9965.928          	2572.402          
J-31            	11192.504         	2231.687          
J-32            	12163.543         	1822.828          
J-33            	13253.833         	1533.220          
J-34            	13918.228         	1482.112          
J-35            	14599.659         	2231.687          
J-36            	14463.373         	800.681           
J-37            	3151.618          	3918.228          
J-38            	4173.765          	3628.620          
J-39            	5161.840          	3287.905          
J-40            	6166.951          	2998.296          
J-41            	7376.491          	2742.760          
J-42            	8432.709          	2350.937          
J-43            	10749.574         	3270.869          
J-44            	10954.003         	1277.683          
J-45            	11737.649         	1141.397          
J-46            	13117.547         	800.681           
R-1             	-4752.981         	9080.068          
ST-1            	-3509.370         	8586.031          

[VERTICES]
;Link            	X-Coord           	Y-Coord
P-31            	13151.618         	1550.256          
P-37            	5161.840          	3219.761          
P-37            	5178.876          	3219.761          
P-45            	-3475.298         	8671.210          
P-45            	-3475.298         	8671.210          

[LABELS]
;X-Coord             Y-Coord             Label & Anchor Node
-1516.184         	9216.354          	"Ngunjiri"	
1618.399          	9488.927          	"Ningaini 3"	
477.002           	8500.852          	"Ningaini 1.5"	
647.359           	7376.491          	"Kiawamururu"	
4003.407          	7734.242          	"Kubu Kimunyi"	
5298.126          	6916.525          	"Ruruma"	
7700.170          	7444.634          	"Matiraini"	
9744.463          	6780.239          	"Gatura"	
9914.821          	6183.986          	"Mbari ya njue"	
12810.903         	4616.695          	"Ithimaini"	
13781.942         	3356.048          	"Kaheti Boys"	
1856.899          	5451.448          	"Muhoro"	
2163.543          	3952.300          	"Kiawaita"	
3100.511          	3577.513          	"Mathenge"	
4071.550          	3270.869          	"Mary Imm"	
5434.412          	3032.368          	"Kaheti"	
6541.738          	2759.796          	"Kibaara"	
7649.063          	2487.223          	"Ithanji"	
9267.462          	3662.692          	"Mbari ya Karue"	
9676.320          	1431.005          	"Kaheti Girls"	
10988.075         	1158.433          	"Karoro"	
11754.685         	834.753           	"Rev. Muhoro"	
13475.298         	715.503           	"Mbari ya Muita"	
13151.618         	2470.187          	"Mbari ya Ngai"	

[BACKDROP]
  DIMENSIONS  	0.000             	0.000             	10000.000         	10000.000         
 UNITS          	None
 FILE           	
 OFFSET         	0.00            	0.00            

[END]
